esta_glyee/ligands/EstA_GlyEE_seed1.pdbqt
 OpenBabel06242613433D

 10  9  0  0  0  0  0  0  0  0999 V2000
   92.0500   83.9780  111.6400 O   0  0  0  0  0  0  0  0  0  0  0  0
   92.3060   84.4420  110.5350 C   0  0  0  0  0  0  0  0  0  0  0  0
   91.5690   85.3900  109.8870 O   0  0  0  0  0  0  0  0  0  0  0  0
   90.9480   86.3840  110.7130 C   0  0  0  0  0  2  0  0  0  0  0  0
   89.4370   86.3310  110.5800 C   0  0  0  0  0  1  0  0  0  0  0  0
   93.5530   84.1090  109.7190 C   0  0  0  0  0  2  0  0  0  0  0  0
   93.3730   82.8700  108.9440 N   0  0  0  0  0  4  0  0  0  0  0  0
   92.4750   82.8990  108.4610 H   0  0  0  0  0  0  0  0  0  0  0  0
   93.3940   82.0690  109.5750 H   0  0  0  0  0  0  0  0  0  0  0  0
   94.1240   82.7850  108.2610 H   0  0  0  0  0  0  0  0  0  0  0  0
  2  1  2  0  0  0  0
  3  2  1  0  0  0  0
  3  4  1  0  0  0  0
  5  4  1  0  0  0  0
  6  2  1  0  0  0  0
  7  9  1  0  0  0  0
  7  6  1  0  0  0  0
  8  7  1  0  0  0  0
 10  7  1  0  0  0  0
M  END
>  <MODEL>
5

>  <REMARK>
 VINA RESULT:    -3.495     11.899     12.512
 INTER + INTRA:          -4.280
 INTER:                  -4.235
 INTRA:                  -0.045
 UNBOUND:                -0.070
 SMILES CCOC(=O)C[NH3+]
 SMILES IDX 5 1 4 2 3 3 2 4 1 5 6 6 7 7
 H PARENT 7 8 7 9 7 10

>  <TORSDO>
F 4

$$$$
