EstA_GlyEE_seed1
     RDKit          3D

 17 16  0  0  0  0  0  0  0  0999 V2000
   82.8270   81.5400  117.7900 C   0  0  0  0  0  0  0  0  0  0  0  0
   82.4410   82.9880  117.5510 C   0  0  0  0  0  0  0  0  0  0  0  0
   82.1420   83.6500  118.7880 O   0  0  0  0  0  0  0  0  0  0  0  0
   82.7060   84.8800  118.9640 C   0  0  0  0  0  0  0  0  0  0  0  0
   82.4830   85.6340  119.9040 O   0  0  0  0  0  0  0  0  0  0  0  0
   83.5880   85.2200  117.7650 C   0  0  0  0  0  0  0  0  0  0  0  0
   83.2070   86.5100  117.1660 N   0  0  0  0  0  0  0  0  0  0  0  0
   82.8782   81.3480  118.8719 H   0  0  0  0  0  0  0  0  0  0  0  0
   82.0735   80.8799  117.3357 H   0  0  0  0  0  0  0  0  0  0  0  0
   83.8091   81.3426  117.3357 H   0  0  0  0  0  0  0  0  0  0  0  0
   83.2765   83.5066  117.0580 H   0  0  0  0  0  0  0  0  0  0  0  0
   81.5442   83.0117  116.9145 H   0  0  0  0  0  0  0  0  0  0  0  0
   84.6357   85.2745  118.0955 H   0  0  0  0  0  0  0  0  0  0  0  0
   83.4583   84.4343  117.0061 H   0  0  0  0  0  0  0  0  0  0  0  0
   82.6420   86.3440  116.3330 H   0  0  0  0  0  0  0  0  0  0  0  0
   84.0480   87.0270  116.9090 H   0  0  0  0  0  0  0  0  0  0  0  0
   82.6670   87.0510  117.8410 H   0  0  0  0  0  0  0  0  0  0  0  0
  1  2  1  0
  2  3  1  0
  3  4  1  0
  4  5  2  0
  4  6  1  0
  6  7  1  0
  1  8  1  0
  1  9  1  0
  1 10  1  0
  2 11  1  0
  2 12  1  0
  6 13  1  0
  6 14  1  0
  7 15  1  0
  7 16  1  0
  7 17  1  0
M  CHG  1   7   1
M  END
>  <meeko>  (1) 
{"is_sidechain": [false], "free_energy": -3.66, "intermolecular_energy": -4.409, "internal_energy": -0.07}

$$$$
EstA_GlyEE_seed1
     RDKit          3D

 17 16  0  0  0  0  0  0  0  0999 V2000
   94.4820   82.6820  101.7800 C   0  0  0  0  0  0  0  0  0  0  0  0
   95.0820   83.7410  102.6870 C   0  0  0  0  0  0  0  0  0  0  0  0
   94.0790   84.6680  103.1250 O   0  0  0  0  0  0  0  0  0  0  0  0
   94.1790   85.9390  102.6360 C   0  0  0  0  0  0  0  0  0  0  0  0
   95.1870   86.6350  102.6730 O   0  0  0  0  0  0  0  0  0  0  0  0
   92.8190   86.4010  102.1180 C   0  0  0  0  0  0  0  0  0  0  0  0
   91.8830   85.2730  101.9860 N   0  0  0  0  0  0  0  0  0  0  0  0
   94.0316   81.8870  102.3925 H   0  0  0  0  0  0  0  0  0  0  0  0
   93.7084   83.1385  101.1451 H   0  0  0  0  0  0  0  0  0  0  0  0
   95.2712   82.2530  101.1451 H   0  0  0  0  0  0  0  0  0  0  0  0
   95.5285   83.2519  103.5653 H   0  0  0  0  0  0  0  0  0  0  0  0
   95.8486   84.2930  102.1234 H   0  0  0  0  0  0  0  0  0  0  0  0
   92.3984   87.1345  102.8216 H   0  0  0  0  0  0  0  0  0  0  0  0
   92.9616   86.8505  101.1242 H   0  0  0  0  0  0  0  0  0  0  0  0
   92.3610   84.4850  101.5480 H   0  0  0  0  0  0  0  0  0  0  0  0
   91.0910   85.5540  101.4080 H   0  0  0  0  0  0  0  0  0  0  0  0
   91.5500   84.9980  102.9090 H   0  0  0  0  0  0  0  0  0  0  0  0
  1  2  1  0
  2  3  1  0
  3  4  1  0
  4  5  2  0
  4  6  1  0
  6  7  1  0
  1  8  1  0
  1  9  1  0
  1 10  1  0
  2 11  1  0
  2 12  1  0
  6 13  1  0
  6 14  1  0
  7 15  1  0
  7 16  1  0
  7 17  1  0
M  CHG  1   7   1
M  END
>  <meeko>  (2) 
{"is_sidechain": [false], "free_energy": -3.593, "intermolecular_energy": -4.293, "internal_energy": -0.105}

$$$$
EstA_GlyEE_seed1
     RDKit          3D

 17 16  0  0  0  0  0  0  0  0999 V2000
   94.5700   82.6150  101.7540 C   0  0  0  0  0  0  0  0  0  0  0  0
   94.9920   83.7650  102.6490 C   0  0  0  0  0  0  0  0  0  0  0  0
   93.8770   84.6180  102.9470 O   0  0  0  0  0  0  0  0  0  0  0  0
   93.9690   85.9060  102.5040 C   0  0  0  0  0  0  0  0  0  0  0  0
   94.9840   86.5920  102.5240 O   0  0  0  0  0  0  0  0  0  0  0  0
   92.5920   86.3990  102.0650 C   0  0  0  0  0  0  0  0  0  0  0  0
   92.6370   87.8070  101.6370 N   0  0  0  0  0  0  0  0  0  0  0  0
   94.2572   81.7627  102.3751 H   0  0  0  0  0  0  0  0  0  0  0  0
   93.7302   82.9336  101.1190 H   0  0  0  0  0  0  0  0  0  0  0  0
   95.4166   82.3148  101.1190 H   0  0  0  0  0  0  0  0  0  0  0  0
   95.3970   83.3604  103.5883 H   0  0  0  0  0  0  0  0  0  0  0  0
   95.7565   84.3565  102.1241 H   0  0  0  0  0  0  0  0  0  0  0  0
   92.2414   85.7807  101.2255 H   0  0  0  0  0  0  0  0  0  0  0  0
   91.9064   86.3192  102.9215 H   0  0  0  0  0  0  0  0  0  0  0  0
   93.3190   87.9110  100.8850 H   0  0  0  0  0  0  0  0  0  0  0  0
   92.9090   88.3940  102.4260 H   0  0  0  0  0  0  0  0  0  0  0  0
   91.7160   88.0900  101.3030 H   0  0  0  0  0  0  0  0  0  0  0  0
  1  2  1  0
  2  3  1  0
  3  4  1  0
  4  5  2  0
  4  6  1  0
  6  7  1  0
  1  8  1  0
  1  9  1  0
  1 10  1  0
  2 11  1  0
  2 12  1  0
  6 13  1  0
  6 14  1  0
  7 15  1  0
  7 16  1  0
  7 17  1  0
M  CHG  1   7   1
M  END
>  <meeko>  (3) 
{"is_sidechain": [false], "free_energy": -3.591, "intermolecular_energy": -4.359, "internal_energy": -0.037}

$$$$
EstA_GlyEE_seed1
     RDKit          3D

 17 16  0  0  0  0  0  0  0  0999 V2000
   90.5080   84.6390  112.4270 C   0  0  0  0  0  0  0  0  0  0  0  0
   91.2940   84.8820  111.1520 C   0  0  0  0  0  0  0  0  0  0  0  0
   92.4410   84.0230  111.0860 O   0  0  0  0  0  0  0  0  0  0  0  0
   93.0830   83.9660  109.8830 C   0  0  0  0  0  0  0  0  0  0  0  0
   92.9930   83.0500  109.0740 O   0  0  0  0  0  0  0  0  0  0  0  0
   94.0050   85.1730  109.7330 C   0  0  0  0  0  0  0  0  0  0  0  0
   95.3960   84.7600  109.4860 N   0  0  0  0  0  0  0  0  0  0  0  0
   91.1506   84.8377  113.2974 H   0  0  0  0  0  0  0  0  0  0  0  0
   89.6365   85.3097  112.4540 H   0  0  0  0  0  0  0  0  0  0  0  0
   90.1671   83.5935  112.4540 H   0  0  0  0  0  0  0  0  0  0  0  0
   90.6455   84.6840  110.2859 H   0  0  0  0  0  0  0  0  0  0  0  0
   91.6368   85.9272  111.1444 H   0  0  0  0  0  0  0  0  0  0  0  0
   93.6581   85.7852  108.8875 H   0  0  0  0  0  0  0  0  0  0  0  0
   93.9764   85.7485  110.6700 H   0  0  0  0  0  0  0  0  0  0  0  0
   95.4960   84.4670  108.5130 H   0  0  0  0  0  0  0  0  0  0  0  0
   95.6340   83.9820  110.1010 H   0  0  0  0  0  0  0  0  0  0  0  0
   96.0210   85.5440  109.6710 H   0  0  0  0  0  0  0  0  0  0  0  0
  1  2  1  0
  2  3  1  0
  3  4  1  0
  4  5  2  0
  4  6  1  0
  6  7  1  0
  1  8  1  0
  1  9  1  0
  1 10  1  0
  2 11  1  0
  2 12  1  0
  6 13  1  0
  6 14  1  0
  7 15  1  0
  7 16  1  0
  7 17  1  0
M  CHG  1   7   1
M  END
>  <meeko>  (4) 
{"is_sidechain": [false], "free_energy": -3.505, "intermolecular_energy": -4.271, "internal_energy": -0.021}

$$$$
EstA_GlyEE_seed1
     RDKit          3D

 17 16  0  0  0  0  0  0  0  0999 V2000
   89.4370   86.3310  110.5800 C   0  0  0  0  0  0  0  0  0  0  0  0
   90.9480   86.3840  110.7130 C   0  0  0  0  0  0  0  0  0  0  0  0
   91.5690   85.3900  109.8870 O   0  0  0  0  0  0  0  0  0  0  0  0
   92.3060   84.4420  110.5350 C   0  0  0  0  0  0  0  0  0  0  0  0
   92.0500   83.9780  111.6400 O   0  0  0  0  0  0  0  0  0  0  0  0
   93.5530   84.1090  109.7190 C   0  0  0  0  0  0  0  0  0  0  0  0
   93.3730   82.8700  108.9440 N   0  0  0  0  0  0  0  0  0  0  0  0
   88.9811   86.3150  111.5810 H   0  0  0  0  0  0  0  0  0  0  0  0
   89.0859   87.2174  110.0313 H   0  0  0  0  0  0  0  0  0  0  0  0
   89.1489   85.4222  110.0313 H   0  0  0  0  0  0  0  0  0  0  0  0
   91.3019   87.3794  110.4066 H   0  0  0  0  0  0  0  0  0  0  0  0
   91.2159   86.1873  111.7616 H   0  0  0  0  0  0  0  0  0  0  0  0
   93.7590   84.9379  109.0259 H   0  0  0  0  0  0  0  0  0  0  0  0
   94.3929   83.9635  110.4142 H   0  0  0  0  0  0  0  0  0  0  0  0
   92.4750   82.8990  108.4610 H   0  0  0  0  0  0  0  0  0  0  0  0
   93.3940   82.0690  109.5750 H   0  0  0  0  0  0  0  0  0  0  0  0
   94.1240   82.7850  108.2610 H   0  0  0  0  0  0  0  0  0  0  0  0
  1  2  1  0
  2  3  1  0
  3  4  1  0
  4  5  2  0
  4  6  1  0
  6  7  1  0
  1  8  1  0
  1  9  1  0
  1 10  1  0
  2 11  1  0
  2 12  1  0
  6 13  1  0
  6 14  1  0
  7 15  1  0
  7 16  1  0
  7 17  1  0
M  CHG  1   7   1
M  END
>  <meeko>  (5) 
{"is_sidechain": [false], "free_energy": -3.495, "intermolecular_energy": -4.235, "internal_energy": -0.045}

$$$$
EstA_GlyEE_seed1
     RDKit          3D

 17 16  0  0  0  0  0  0  0  0999 V2000
   94.1830   89.2750  104.7210 C   0  0  0  0  0  0  0  0  0  0  0  0
   94.5340   87.8760  104.2500 C   0  0  0  0  0  0  0  0  0  0  0  0
   94.4440   87.7780  102.8210 O   0  0  0  0  0  0  0  0  0  0  0  0
   93.2930   87.2380  102.3260 C   0  0  0  0  0  0  0  0  0  0  0  0
   92.4380   87.8490  101.6960 O   0  0  0  0  0  0  0  0  0  0  0  0
   93.1830   85.7770  102.7520 C   0  0  0  0  0  0  0  0  0  0  0  0
   91.8420   85.2350  102.4760 N   0  0  0  0  0  0  0  0  0  0  0  0
   94.1765   89.3008  105.8207 H   0  0  0  0  0  0  0  0  0  0  0  0
   94.9302   89.9878  104.3419 H   0  0  0  0  0  0  0  0  0  0  0  0
   93.1879   89.5506  104.3419 H   0  0  0  0  0  0  0  0  0  0  0  0
   95.5613   87.6379  104.5631 H   0  0  0  0  0  0  0  0  0  0  0  0
   93.8216   87.1664  104.6960 H   0  0  0  0  0  0  0  0  0  0  0  0
   93.9283   85.1862  102.1992 H   0  0  0  0  0  0  0  0  0  0  0  0
   93.3631   85.7185  103.8356 H   0  0  0  0  0  0  0  0  0  0  0  0
   91.6370   85.3270  101.4810 H   0  0  0  0  0  0  0  0  0  0  0  0
   91.1490   85.7530  103.0160 H   0  0  0  0  0  0  0  0  0  0  0  0
   91.8130   84.2510  102.7400 H   0  0  0  0  0  0  0  0  0  0  0  0
  1  2  1  0
  2  3  1  0
  3  4  1  0
  4  5  2  0
  4  6  1  0
  6  7  1  0
  1  8  1  0
  1  9  1  0
  1 10  1  0
  2 11  1  0
  2 12  1  0
  6 13  1  0
  6 14  1  0
  7 15  1  0
  7 16  1  0
  7 17  1  0
M  CHG  1   7   1
M  END
>  <meeko>  (6) 
{"is_sidechain": [false], "free_energy": -3.471, "intermolecular_energy": -4.177, "internal_energy": -0.075}

$$$$
EstA_GlyEE_seed1
     RDKit          3D

 17 16  0  0  0  0  0  0  0  0999 V2000
   82.5000   85.4350  121.8350 C   0  0  0  0  0  0  0  0  0  0  0  0
   83.3260   85.4390  120.5620 C   0  0  0  0  0  0  0  0  0  0  0  0
   82.4870   85.5770  119.4070 O   0  0  0  0  0  0  0  0  0  0  0  0
   82.5260   84.5500  118.5080 C   0  0  0  0  0  0  0  0  0  0  0  0
   82.1460   83.4050  118.7220 O   0  0  0  0  0  0  0  0  0  0  0  0
   83.2000   85.0180  117.2200 C   0  0  0  0  0  0  0  0  0  0  0  0
   83.1970   86.4870  117.1150 N   0  0  0  0  0  0  0  0  0  0  0  0
   83.1704   85.4382  122.7071 H   0  0  0  0  0  0  0  0  0  0  0  0
   81.8611   86.3301  121.8603 H   0  0  0  0  0  0  0  0  0  0  0  0
   81.8698   84.5338  121.8603 H   0  0  0  0  0  0  0  0  0  0  0  0
   84.0342   86.2800  120.5950 H   0  0  0  0  0  0  0  0  0  0  0  0
   83.8665   84.4836  120.4912 H   0  0  0  0  0  0  0  0  0  0  0  0
   84.2403   84.6606  117.2102 H   0  0  0  0  0  0  0  0  0  0  0  0
   82.6386   84.6088  116.3671 H   0  0  0  0  0  0  0  0  0  0  0  0
   82.3470   86.8560  117.5410 H   0  0  0  0  0  0  0  0  0  0  0  0
   83.2310   86.7570  116.1320 H   0  0  0  0  0  0  0  0  0  0  0  0
   84.0120   86.8630  117.6000 H   0  0  0  0  0  0  0  0  0  0  0  0
  1  2  1  0
  2  3  1  0
  3  4  1  0
  4  5  2  0
  4  6  1  0
  6  7  1  0
  1  8  1  0
  1  9  1  0
  1 10  1  0
  2 11  1  0
  2 12  1  0
  6 13  1  0
  6 14  1  0
  7 15  1  0
  7 16  1  0
  7 17  1  0
M  CHG  1   7   1
M  END
>  <meeko>  (7) 
{"is_sidechain": [false], "free_energy": -3.439, "intermolecular_energy": -4.146, "internal_energy": -0.066}

$$$$
EstA_GlyEE_seed1
     RDKit          3D

 17 16  0  0  0  0  0  0  0  0999 V2000
   92.2360   84.9710  102.6810 C   0  0  0  0  0  0  0  0  0  0  0  0
   93.5440   84.4590  103.2540 C   0  0  0  0  0  0  0  0  0  0  0  0
   94.2360   83.6410  102.3000 O   0  0  0  0  0  0  0  0  0  0  0  0
   95.5420   83.3610  102.5820 C   0  0  0  0  0  0  0  0  0  0  0  0
   96.2280   83.9410  103.4150 O   0  0  0  0  0  0  0  0  0  0  0  0
   96.0510   82.2740  101.6370 C   0  0  0  0  0  0  0  0  0  0  0  0
   97.4300   81.8780  101.9680 N   0  0  0  0  0  0  0  0  0  0  0  0
   91.5551   85.2375  103.5028 H   0  0  0  0  0  0  0  0  0  0  0  0
   92.4296   85.8597  102.0624 H   0  0  0  0  0  0  0  0  0  0  0  0
   91.7749   84.1870  102.0624 H   0  0  0  0  0  0  0  0  0  0  0  0
   94.1797   85.3159  103.5218 H   0  0  0  0  0  0  0  0  0  0  0  0
   93.3236   83.8509  104.1437 H   0  0  0  0  0  0  0  0  0  0  0  0
   95.3964   81.3937  101.7182 H   0  0  0  0  0  0  0  0  0  0  0  0
   96.0417   82.6736  100.6122 H   0  0  0  0  0  0  0  0  0  0  0  0
   98.0850   82.5180  101.5170 H   0  0  0  0  0  0  0  0  0  0  0  0
   97.6000   80.9290  101.6370 H   0  0  0  0  0  0  0  0  0  0  0  0
   97.5610   81.9150  102.9790 H   0  0  0  0  0  0  0  0  0  0  0  0
  1  2  1  0
  2  3  1  0
  3  4  1  0
  4  5  2  0
  4  6  1  0
  6  7  1  0
  1  8  1  0
  1  9  1  0
  1 10  1  0
  2 11  1  0
  2 12  1  0
  6 13  1  0
  6 14  1  0
  7 15  1  0
  7 16  1  0
  7 17  1  0
M  CHG  1   7   1
M  END
>  <meeko>  (8) 
{"is_sidechain": [false], "free_energy": -3.411, "intermolecular_energy": -4.159, "internal_energy": -0.02}

$$$$
EstA_GlyEE_seed1
     RDKit          3D

 17 16  0  0  0  0  0  0  0  0999 V2000
   82.3220   82.2950  117.8220 C   0  0  0  0  0  0  0  0  0  0  0  0
   82.6840   83.6500  117.2410 C   0  0  0  0  0  0  0  0  0  0  0  0
   82.3160   84.7070  118.1380 O   0  0  0  0  0  0  0  0  0  0  0  0
   83.3300   85.2610  118.8650 C   0  0  0  0  0  0  0  0  0  0  0  0
   84.3980   85.6510  118.4080 O   0  0  0  0  0  0  0  0  0  0  0  0
   82.9740   85.2380  120.3490 C   0  0  0  0  0  0  0  0  0  0  0  0
   84.1130   85.6590  121.1820 N   0  0  0  0  0  0  0  0  0  0  0  0
   82.3370   82.3512  118.9205 H   0  0  0  0  0  0  0  0  0  0  0  0
   81.3156   82.0078  117.4833 H   0  0  0  0  0  0  0  0  0  0  0  0
   83.0511   81.5442  117.4833 H   0  0  0  0  0  0  0  0  0  0  0  0
   83.7692   83.6882  117.0655 H   0  0  0  0  0  0  0  0  0  0  0  0
   82.1368   83.7846  116.2963 H   0  0  0  0  0  0  0  0  0  0  0  0
   82.1301   85.9213  120.5251 H   0  0  0  0  0  0  0  0  0  0  0  0
   82.7062   84.2073  120.6246 H   0  0  0  0  0  0  0  0  0  0  0  0
   84.3240   86.6400  120.9970 H   0  0  0  0  0  0  0  0  0  0  0  0
   84.9270   85.0880  120.9580 H   0  0  0  0  0  0  0  0  0  0  0  0
   83.8750   85.5420  122.1660 H   0  0  0  0  0  0  0  0  0  0  0  0
  1  2  1  0
  2  3  1  0
  3  4  1  0
  4  5  2  0
  4  6  1  0
  6  7  1  0
  1  8  1  0
  1  9  1  0
  1 10  1  0
  2 11  1  0
  2 12  1  0
  6 13  1  0
  6 14  1  0
  7 15  1  0
  7 16  1  0
  7 17  1  0
M  CHG  1   7   1
M  END
>  <meeko>  (9) 
{"is_sidechain": [false], "free_energy": -3.392, "intermolecular_energy": -4.096, "internal_energy": -0.059}

$$$$
EstA_GlyEE_seed1
     RDKit          3D

 17 16  0  0  0  0  0  0  0  0999 V2000
   94.4040   82.8050  101.8480 C   0  0  0  0  0  0  0  0  0  0  0  0
   95.4990   83.8530  101.9250 C   0  0  0  0  0  0  0  0  0  0  0  0
   95.7160   84.2690  103.2810 O   0  0  0  0  0  0  0  0  0  0  0  0
   95.4050   85.5660  103.5710 C   0  0  0  0  0  0  0  0  0  0  0  0
   95.2910   86.4680  102.7500 O   0  0  0  0  0  0  0  0  0  0  0  0
   95.3090   85.7470  105.0840 C   0  0  0  0  0  0  0  0  0  0  0  0
   96.2100   84.8230  105.7930 N   0  0  0  0  0  0  0  0  0  0  0  0
   94.1014   82.5154  102.8652 H   0  0  0  0  0  0  0  0  0  0  0  0
   93.5374   83.2189  101.3115 H   0  0  0  0  0  0  0  0  0  0  0  0
   94.7795   81.9211  101.3115 H   0  0  0  0  0  0  0  0  0  0  0  0
   96.4318   83.4291  101.5248 H   0  0  0  0  0  0  0  0  0  0  0  0
   95.1898   84.7280  101.3344 H   0  0  0  0  0  0  0  0  0  0  0  0
   95.5837   86.7812  105.3390 H   0  0  0  0  0  0  0  0  0  0  0  0
   94.2761   85.5302  105.3941 H   0  0  0  0  0  0  0  0  0  0  0  0
   95.9350   83.8610  105.5940 H   0  0  0  0  0  0  0  0  0  0  0  0
   96.1490   84.9930  106.7970 H   0  0  0  0  0  0  0  0  0  0  0  0
   97.1680   84.9760  105.4800 H   0  0  0  0  0  0  0  0  0  0  0  0
  1  2  1  0
  2  3  1  0
  3  4  1  0
  4  5  2  0
  4  6  1  0
  6  7  1  0
  1  8  1  0
  1  9  1  0
  1 10  1  0
  2 11  1  0
  2 12  1  0
  6 13  1  0
  6 14  1  0
  7 15  1  0
  7 16  1  0
  7 17  1  0
M  CHG  1   7   1
M  END
>  <meeko>  (10) 
{"is_sidechain": [false], "free_energy": -3.376, "intermolecular_energy": -4.077, "internal_energy": -0.059}

$$$$
EstA_GlyEE_seed1
     RDKit          3D

 17 16  0  0  0  0  0  0  0  0999 V2000
   92.6050   85.4470  102.4730 C   0  0  0  0  0  0  0  0  0  0  0  0
   93.9950   85.9970  102.7370 C   0  0  0  0  0  0  0  0  0  0  0  0
   94.9840   85.2620  102.0020 O   0  0  0  0  0  0  0  0  0  0  0  0
   95.5530   84.2040  102.6490 C   0  0  0  0  0  0  0  0  0  0  0  0
   95.9860   84.2230  103.7950 O   0  0  0  0  0  0  0  0  0  0  0  0
   95.6530   83.0120  101.7000 C   0  0  0  0  0  0  0  0  0  0  0  0
   94.3860   82.2670  101.6370 N   0  0  0  0  0  0  0  0  0  0  0  0
   92.1015   85.2478  103.4305 H   0  0  0  0  0  0  0  0  0  0  0  0
   92.0227   86.1825  101.8986 H   0  0  0  0  0  0  0  0  0  0  0  0
   92.6836   84.5122  101.8986 H   0  0  0  0  0  0  0  0  0  0  0  0
   94.0289   87.0528  102.4301 H   0  0  0  0  0  0  0  0  0  0  0  0
   94.2126   85.9022  103.8111 H   0  0  0  0  0  0  0  0  0  0  0  0
   95.9040   83.3766  100.6930 H   0  0  0  0  0  0  0  0  0  0  0  0
   96.4339   82.3349  102.0765 H   0  0  0  0  0  0  0  0  0  0  0  0
   94.5760   81.2670  101.7030 H   0  0  0  0  0  0  0  0  0  0  0  0
   93.9170   82.4660  100.7530 H   0  0  0  0  0  0  0  0  0  0  0  0
   93.7860   82.5510  102.4110 H   0  0  0  0  0  0  0  0  0  0  0  0
  1  2  1  0
  2  3  1  0
  3  4  1  0
  4  5  2  0
  4  6  1  0
  6  7  1  0
  1  8  1  0
  1  9  1  0
  1 10  1  0
  2 11  1  0
  2 12  1  0
  6 13  1  0
  6 14  1  0
  7 15  1  0
  7 16  1  0
  7 17  1  0
M  CHG  1   7   1
M  END
>  <meeko>  (11) 
{"is_sidechain": [false], "free_energy": -3.362, "intermolecular_energy": -3.992, "internal_energy": -0.128}

$$$$
EstA_GlyEE_seed1
     RDKit          3D

 17 16  0  0  0  0  0  0  0  0999 V2000
   94.1520   89.0780  104.3470 C   0  0  0  0  0  0  0  0  0  0  0  0
   94.5480   87.6290  104.1320 C   0  0  0  0  0  0  0  0  0  0  0  0
   94.5720   87.3060  102.7340 O   0  0  0  0  0  0  0  0  0  0  0  0
   94.0830   86.0790  102.3900 C   0  0  0  0  0  0  0  0  0  0  0  0
   94.7510   85.0580  102.2720 O   0  0  0  0  0  0  0  0  0  0  0  0
   92.5910   86.1850  102.0850 C   0  0  0  0  0  0  0  0  0  0  0  0
   91.8680   84.9760  102.5150 N   0  0  0  0  0  0  0  0  0  0  0  0
   94.0951   89.2864  105.4256 H   0  0  0  0  0  0  0  0  0  0  0  0
   94.9033   89.7358  103.8856 H   0  0  0  0  0  0  0  0  0  0  0  0
   93.1706   89.2622  103.8856 H   0  0  0  0  0  0  0  0  0  0  0  0
   95.5487   87.4624  104.5572 H   0  0  0  0  0  0  0  0  0  0  0  0
   93.8071   86.9851  104.6285 H   0  0  0  0  0  0  0  0  0  0  0  0
   92.1783   87.0563  102.6146 H   0  0  0  0  0  0  0  0  0  0  0  0
   92.4666   86.2947  100.9976 H   0  0  0  0  0  0  0  0  0  0  0  0
   91.1820   84.7200  101.8040 H   0  0  0  0  0  0  0  0  0  0  0  0
   91.3910   85.1620  103.3970 H   0  0  0  0  0  0  0  0  0  0  0  0
   92.5300   84.2110  102.6400 H   0  0  0  0  0  0  0  0  0  0  0  0
  1  2  1  0
  2  3  1  0
  3  4  1  0
  4  5  2  0
  4  6  1  0
  6  7  1  0
  1  8  1  0
  1  9  1  0
  1 10  1  0
  2 11  1  0
  2 12  1  0
  6 13  1  0
  6 14  1  0
  7 15  1  0
  7 16  1  0
  7 17  1  0
M  CHG  1   7   1
M  END
>  <meeko>  (12) 
{"is_sidechain": [false], "free_energy": -3.343, "intermolecular_energy": -4.041, "internal_energy": -0.056}

$$$$
EstA_GlyEE_seed1
     RDKit          3D

 17 16  0  0  0  0  0  0  0  0999 V2000
   92.2350   84.9790  102.4650 C   0  0  0  0  0  0  0  0  0  0  0  0
   93.0630   86.2470  102.3690 C   0  0  0  0  0  0  0  0  0  0  0  0
   94.4630   85.9400  102.2960 O   0  0  0  0  0  0  0  0  0  0  0  0
   95.2270   86.3600  103.3470 C   0  0  0  0  0  0  0  0  0  0  0  0
   95.6390   87.5010  103.5120 O   0  0  0  0  0  0  0  0  0  0  0  0
   95.5710   85.1710  104.2410 C   0  0  0  0  0  0  0  0  0  0  0  0
   95.9700   83.9980  103.4460 N   0  0  0  0  0  0  0  0  0  0  0  0
   92.0708   84.7275  103.5232 H   0  0  0  0  0  0  0  0  0  0  0  0
   91.2650   85.1362  101.9707 H   0  0  0  0  0  0  0  0  0  0  0  0
   92.7690   84.1541  101.9707 H   0  0  0  0  0  0  0  0  0  0  0  0
   92.7684   86.8020  101.4661 H   0  0  0  0  0  0  0  0  0  0  0  0
   92.8826   86.8536  103.2688 H   0  0  0  0  0  0  0  0  0  0  0  0
   96.4011   85.4517  104.9059 H   0  0  0  0  0  0  0  0  0  0  0  0
   94.6763   84.9060  104.8235 H   0  0  0  0  0  0  0  0  0  0  0  0
   95.7960   83.1480  103.9830 H   0  0  0  0  0  0  0  0  0  0  0  0
   96.9630   84.0610  103.2220 H   0  0  0  0  0  0  0  0  0  0  0  0
   95.4270   83.9720  102.5830 H   0  0  0  0  0  0  0  0  0  0  0  0
  1  2  1  0
  2  3  1  0
  3  4  1  0
  4  5  2  0
  4  6  1  0
  6  7  1  0
  1  8  1  0
  1  9  1  0
  1 10  1  0
  2 11  1  0
  2 12  1  0
  6 13  1  0
  6 14  1  0
  7 15  1  0
  7 16  1  0
  7 17  1  0
M  CHG  1   7   1
M  END
>  <meeko>  (13) 
{"is_sidechain": [false], "free_energy": -3.3, "intermolecular_energy": -3.944, "internal_energy": -0.101}

$$$$
EstA_GlyEE_seed1
     RDKit          3D

 17 16  0  0  0  0  0  0  0  0999 V2000
   84.0530   85.4680  119.0460 C   0  0  0  0  0  0  0  0  0  0  0  0
   82.5720   85.1600  118.9350 C   0  0  0  0  0  0  0  0  0  0  0  0
   82.2240   84.7890  117.5940 O   0  0  0  0  0  0  0  0  0  0  0  0
   82.7410   83.6090  117.1410 C   0  0  0  0  0  0  0  0  0  0  0  0
   83.5100   83.4890  116.1950 O   0  0  0  0  0  0  0  0  0  0  0  0
   82.1450   82.4480  117.9330 C   0  0  0  0  0  0  0  0  0  0  0  0
   83.0240   81.2680  117.9010 N   0  0  0  0  0  0  0  0  0  0  0  0
   84.3367   85.5270  120.1071 H   0  0  0  0  0  0  0  0  0  0  0  0
   84.6311   84.6709  118.5557 H   0  0  0  0  0  0  0  0  0  0  0  0
   84.2653   86.4295  118.5557 H   0  0  0  0  0  0  0  0  0  0  0  0
   82.3252   84.3301  119.6135 H   0  0  0  0  0  0  0  0  0  0  0  0
   82.0047   86.0621  119.2078 H   0  0  0  0  0  0  0  0  0  0  0  0
   82.0055   82.7620  118.9780 H   0  0  0  0  0  0  0  0  0  0  0  0
   81.1827   82.1750  117.4754 H   0  0  0  0  0  0  0  0  0  0  0  0
   83.2320   81.0260  116.9310 H   0  0  0  0  0  0  0  0  0  0  0  0
   82.5570   80.4830  118.3540 H   0  0  0  0  0  0  0  0  0  0  0  0
   83.8920   81.4780  118.3930 H   0  0  0  0  0  0  0  0  0  0  0  0
  1  2  1  0
  2  3  1  0
  3  4  1  0
  4  5  2  0
  4  6  1  0
  6  7  1  0
  1  8  1  0
  1  9  1  0
  1 10  1  0
  2 11  1  0
  2 12  1  0
  6 13  1  0
  6 14  1  0
  7 15  1  0
  7 16  1  0
  7 17  1  0
M  CHG  1   7   1
M  END
>  <meeko>  (14) 
{"is_sidechain": [false], "free_energy": -3.288, "intermolecular_energy": -3.943, "internal_energy": -0.089}

$$$$
EstA_GlyEE_seed1
     RDKit          3D

 17 16  0  0  0  0  0  0  0  0999 V2000
   92.3270   85.3920  102.4920 C   0  0  0  0  0  0  0  0  0  0  0  0
   93.2920   84.7680  103.4830 C   0  0  0  0  0  0  0  0  0  0  0  0
   94.1990   83.8750  102.8220 O   0  0  0  0  0  0  0  0  0  0  0  0
   95.5160   83.9900  103.1650 C   0  0  0  0  0  0  0  0  0  0  0  0
   96.4320   83.3320  102.6880 O   0  0  0  0  0  0  0  0  0  0  0  0
   95.6660   85.0000  104.2990 C   0  0  0  0  0  0  0  0  0  0  0  0
   96.5070   84.4680  105.3850 N   0  0  0  0  0  0  0  0  0  0  0  0
   91.5251   85.9105  103.0379 H   0  0  0  0  0  0  0  0  0  0  0  0
   92.8659   86.1131  101.8598 H   0  0  0  0  0  0  0  0  0  0  0  0
   91.8905   84.6047  101.8598 H   0  0  0  0  0  0  0  0  0  0  0  0
   93.8672   85.5654  103.9763 H   0  0  0  0  0  0  0  0  0  0  0  0
   92.7138   84.1964  104.2239 H   0  0  0  0  0  0  0  0  0  0  0  0
   96.1293   85.9159  103.9035 H   0  0  0  0  0  0  0  0  0  0  0  0
   94.6670   85.2128  104.7074 H   0  0  0  0  0  0  0  0  0  0  0  0
   97.3780   84.1090  104.9940 H   0  0  0  0  0  0  0  0  0  0  0  0
   96.0110   83.7140  105.8600 H   0  0  0  0  0  0  0  0  0  0  0  0
   96.7130   85.2120  106.0500 H   0  0  0  0  0  0  0  0  0  0  0  0
  1  2  1  0
  2  3  1  0
  3  4  1  0
  4  5  2  0
  4  6  1  0
  6  7  1  0
  1  8  1  0
  1  9  1  0
  1 10  1  0
  2 11  1  0
  2 12  1  0
  6 13  1  0
  6 14  1  0
  7 15  1  0
  7 16  1  0
  7 17  1  0
M  CHG  1   7   1
M  END
>  <meeko>  (15) 
{"is_sidechain": [false], "free_energy": -3.255, "intermolecular_energy": -3.913, "internal_energy": -0.077}

$$$$
EstA_GlyEE_seed1
     RDKit          3D

 17 16  0  0  0  0  0  0  0  0999 V2000
   88.0160   87.4500  109.9520 C   0  0  0  0  0  0  0  0  0  0  0  0
   89.2680   87.0080  110.6870 C   0  0  0  0  0  0  0  0  0  0  0  0
   88.9770   85.9370  111.5950 O   0  0  0  0  0  0  0  0  0  0  0  0
   89.6670   84.7760  111.3980 C   0  0  0  0  0  0  0  0  0  0  0  0
   89.2050   83.6470  111.5180 O   0  0  0  0  0  0  0  0  0  0  0  0
   91.1300   85.0910  111.0960 C   0  0  0  0  0  0  0  0  0  0  0  0
   91.7810   83.9840  110.3760 N   0  0  0  0  0  0  0  0  0  0  0  0
   87.2399   87.7240  110.6818 H   0  0  0  0  0  0  0  0  0  0  0  0
   88.2493   88.3201  109.3207 H   0  0  0  0  0  0  0  0  0  0  0  0
   87.6513   86.6263  109.3207 H   0  0  0  0  0  0  0  0  0  0  0  0
   90.0140   86.6664  109.9544 H   0  0  0  0  0  0  0  0  0  0  0  0
   89.6572   87.8608  111.2625 H   0  0  0  0  0  0  0  0  0  0  0  0
   91.1801   85.9989  110.4770 H   0  0  0  0  0  0  0  0  0  0  0  0
   91.6560   85.2395  112.0506 H   0  0  0  0  0  0  0  0  0  0  0  0
   91.1200   83.2140  110.2690 H   0  0  0  0  0  0  0  0  0  0  0  0
   92.5920   83.6640  110.9050 H   0  0  0  0  0  0  0  0  0  0  0  0
   92.0800   84.3060  109.4560 H   0  0  0  0  0  0  0  0  0  0  0  0
  1  2  1  0
  2  3  1  0
  3  4  1  0
  4  5  2  0
  4  6  1  0
  6  7  1  0
  1  8  1  0
  1  9  1  0
  1 10  1  0
  2 11  1  0
  2 12  1  0
  6 13  1  0
  6 14  1  0
  7 15  1  0
  7 16  1  0
  7 17  1  0
M  CHG  1   7   1
M  END
>  <meeko>  (16) 
{"is_sidechain": [false], "free_energy": -3.234, "intermolecular_energy": -3.9, "internal_energy": -0.066}

$$$$
EstA_GlyEE_seed1
     RDKit          3D

 17 16  0  0  0  0  0  0  0  0999 V2000
   89.4200   85.0200  111.5990 C   0  0  0  0  0  0  0  0  0  0  0  0
   90.8740   84.6400  111.8160 C   0  0  0  0  0  0  0  0  0  0  0  0
   91.4500   84.1120  110.6130 O   0  0  0  0  0  0  0  0  0  0  0  0
   92.3710   84.9030  109.9890 C   0  0  0  0  0  0  0  0  0  0  0  0
   92.6830   86.0360  110.3340 O   0  0  0  0  0  0  0  0  0  0  0  0
   92.8910   84.1990  108.7370 C   0  0  0  0  0  0  0  0  0  0  0  0
   93.3400   82.8300  109.0380 N   0  0  0  0  0  0  0  0  0  0  0  0
   88.9255   85.1492  112.5730 H   0  0  0  0  0  0  0  0  0  0  0  0
   89.3677   85.9620  111.0334 H   0  0  0  0  0  0  0  0  0  0  0  0
   88.9135   84.2241  111.0334 H   0  0  0  0  0  0  0  0  0  0  0  0
   91.4377   85.5332  112.1233 H   0  0  0  0  0  0  0  0  0  0  0  0
   90.9225   83.8674  112.5975 H   0  0  0  0  0  0  0  0  0  0  0  0
   92.0846   84.1551  107.9901 H   0  0  0  0  0  0  0  0  0  0  0  0
   93.7497   84.7680  108.3513 H   0  0  0  0  0  0  0  0  0  0  0  0
   92.5700   82.3030  109.4500 H   0  0  0  0  0  0  0  0  0  0  0  0
   94.1190   82.8640  109.6950 H   0  0  0  0  0  0  0  0  0  0  0  0
   93.6410   82.3750  108.1770 H   0  0  0  0  0  0  0  0  0  0  0  0
  1  2  1  0
  2  3  1  0
  3  4  1  0
  4  5  2  0
  4  6  1  0
  6  7  1  0
  1  8  1  0
  1  9  1  0
  1 10  1  0
  2 11  1  0
  2 12  1  0
  6 13  1  0
  6 14  1  0
  7 15  1  0
  7 16  1  0
  7 17  1  0
M  CHG  1   7   1
M  END
>  <meeko>  (17) 
{"is_sidechain": [false], "free_energy": -3.165, "intermolecular_energy": -3.822, "internal_energy": -0.061}

$$$$
EstA_GlyEE_seed1
     RDKit          3D

 17 16  0  0  0  0  0  0  0  0999 V2000
   83.2690   85.2560  119.1670 C   0  0  0  0  0  0  0  0  0  0  0  0
   82.1430   84.2880  118.8520 C   0  0  0  0  0  0  0  0  0  0  0  0
   82.1680   83.9060  117.4700 O   0  0  0  0  0  0  0  0  0  0  0  0
   82.9090   82.8020  117.1630 C   0  0  0  0  0  0  0  0  0  0  0  0
   82.8830   81.7390  117.7720 O   0  0  0  0  0  0  0  0  0  0  0  0
   83.8470   83.1180  116.0000 C   0  0  0  0  0  0  0  0  0  0  0  0
   83.2600   84.1180  115.0930 N   0  0  0  0  0  0  0  0  0  0  0  0
   83.3778   85.3495  120.2576 H   0  0  0  0  0  0  0  0  0  0  0  0
   84.2081   84.8789  118.7358 H   0  0  0  0  0  0  0  0  0  0  0  0
   83.0371   86.2410  118.7358 H   0  0  0  0  0  0  0  0  0  0  0  0
   82.2556   83.3892  119.4761 H   0  0  0  0  0  0  0  0  0  0  0  0
   81.1840   84.7841  119.0621 H   0  0  0  0  0  0  0  0  0  0  0  0
   84.7938   83.5098  116.4001 H   0  0  0  0  0  0  0  0  0  0  0  0
   84.0171   82.1921  115.4310 H   0  0  0  0  0  0  0  0  0  0  0  0
   83.9820   84.7790  114.8040 H   0  0  0  0  0  0  0  0  0  0  0  0
   82.5140   84.6180  115.5750 H   0  0  0  0  0  0  0  0  0  0  0  0
   82.8800   83.6490  114.2710 H   0  0  0  0  0  0  0  0  0  0  0  0
  1  2  1  0
  2  3  1  0
  3  4  1  0
  4  5  2  0
  4  6  1  0
  6  7  1  0
  1  8  1  0
  1  9  1  0
  1 10  1  0
  2 11  1  0
  2 12  1  0
  6 13  1  0
  6 14  1  0
  7 15  1  0
  7 16  1  0
  7 17  1  0
M  CHG  1   7   1
M  END
>  <meeko>  (18) 
{"is_sidechain": [false], "free_energy": -3.106, "intermolecular_energy": -3.702, "internal_energy": -0.109}

$$$$
EstA_GlyEE_seed1
     RDKit          3D

 17 16  0  0  0  0  0  0  0  0999 V2000
   96.0240   85.0650  105.4000 C   0  0  0  0  0  0  0  0  0  0  0  0
   95.1000   85.2450  104.2100 C   0  0  0  0  0  0  0  0  0  0  0  0
   95.2020   84.1340  103.3080 O   0  0  0  0  0  0  0  0  0  0  0  0
   94.1920   84.0000  102.4000 C   0  0  0  0  0  0  0  0  0  0  0  0
   94.0470   83.0530  101.6360 O   0  0  0  0  0  0  0  0  0  0  0  0
   93.3190   85.2520  102.4110 C   0  0  0  0  0  0  0  0  0  0  0  0
   91.9210   84.9350  102.0760 N   0  0  0  0  0  0  0  0  0  0  0  0
   95.4489   85.1770  106.3310 H   0  0  0  0  0  0  0  0  0  0  0  0
   96.4747   84.0622  105.3659 H   0  0  0  0  0  0  0  0  0  0  0  0
   96.8182   85.8253  105.3659 H   0  0  0  0  0  0  0  0  0  0  0  0
   94.0630   85.3236  104.5683 H   0  0  0  0  0  0  0  0  0  0  0  0
   95.3926   86.1600  103.6740 H   0  0  0  0  0  0  0  0  0  0  0  0
   93.3533   85.7034  103.4135 H   0  0  0  0  0  0  0  0  0  0  0  0
   93.7063   85.9507  101.6548 H   0  0  0  0  0  0  0  0  0  0  0  0
   91.3450   85.7680  102.1980 H   0  0  0  0  0  0  0  0  0  0  0  0
   91.5830   84.1950  102.6910 H   0  0  0  0  0  0  0  0  0  0  0  0
   91.8670   84.6230  101.1070 H   0  0  0  0  0  0  0  0  0  0  0  0
  1  2  1  0
  2  3  1  0
  3  4  1  0
  4  5  2  0
  4  6  1  0
  6  7  1  0
  1  8  1  0
  1  9  1  0
  1 10  1  0
  2 11  1  0
  2 12  1  0
  6 13  1  0
  6 14  1  0
  7 15  1  0
  7 16  1  0
  7 17  1  0
M  CHG  1   7   1
M  END
>  <meeko>  (19) 
{"is_sidechain": [false], "free_energy": -3.105, "intermolecular_energy": -3.742, "internal_energy": -0.068}

$$$$
EstA_GlyEE_seed1
     RDKit          3D

 17 16  0  0  0  0  0  0  0  0999 V2000
   93.6310   87.9130  110.6600 C   0  0  0  0  0  0  0  0  0  0  0  0
   93.2590   86.8070  109.6890 C   0  0  0  0  0  0  0  0  0  0  0  0
   92.2440   85.9590  110.2440 O   0  0  0  0  0  0  0  0  0  0  0  0
   92.6080   84.6670  110.4920 C   0  0  0  0  0  0  0  0  0  0  0  0
   92.2090   83.9860  111.4290 O   0  0  0  0  0  0  0  0  0  0  0  0
   93.6590   84.2240  109.4780 C   0  0  0  0  0  0  0  0  0  0  0  0
   93.4160   82.8460  109.0190 N   0  0  0  0  0  0  0  0  0  0  0  0
   93.5094   87.5514  111.6917 H   0  0  0  0  0  0  0  0  0  0  0  0
   94.6779   88.2082  110.4959 H   0  0  0  0  0  0  0  0  0  0  0  0
   92.9753   88.7808  110.4959 H   0  0  0  0  0  0  0  0  0  0  0  0
   92.8834   87.2564  108.7579 H   0  0  0  0  0  0  0  0  0  0  0  0
   94.1538   86.1994  109.4886 H   0  0  0  0  0  0  0  0  0  0  0  0
   93.6276   84.9006  108.6113 H   0  0  0  0  0  0  0  0  0  0  0  0
   94.6450   84.2579  109.9644 H   0  0  0  0  0  0  0  0  0  0  0  0
   93.2030   82.2540  109.8220 H   0  0  0  0  0  0  0  0  0  0  0  0
   94.2480   82.4930  108.5470 H   0  0  0  0  0  0  0  0  0  0  0  0
   92.6280   82.8380  108.3720 H   0  0  0  0  0  0  0  0  0  0  0  0
  1  2  1  0
  2  3  1  0
  3  4  1  0
  4  5  2  0
  4  6  1  0
  6  7  1  0
  1  8  1  0
  1  9  1  0
  1 10  1  0
  2 11  1  0
  2 12  1  0
  6 13  1  0
  6 14  1  0
  7 15  1  0
  7 16  1  0
  7 17  1  0
M  CHG  1   7   1
M  END
>  <meeko>  (20) 
{"is_sidechain": [false], "free_energy": -3.097, "intermolecular_energy": -3.73, "internal_energy": -0.071}

$$$$
