# created with PyMOL 3.1.0
@<TRIPOS>MOLECULE
GYE_pose5
10 9 1                  
SMALL
USER_CHARGES
@<TRIPOS>ATOM
1	   N	93.373	82.870	108.944	N.3	1	GYE1	-0.348	
2	   C	92.306	84.442	110.535	C.3	1	GYE1	0.361	
3	   C	90.948	86.384	110.713	C.3	1	GYE1	0.229	
4	   C	89.437	86.331	110.580	C.3	1	GYE1	0.049	
5	   C	93.553	84.109	109.719	C.3	1	GYE1	0.383	
6	   O	92.050	83.978	111.640	O.3	1	GYE1	-0.245	
7	   O	91.569	85.390	109.887	O.3	1	GYE1	-0.462	
8	   H	92.475	82.899	108.461	 H	1	GYE1	0.344	
9	   H	93.394	82.069	109.575	 H	1	GYE1	0.344	
10	   H	94.124	82.785	108.261	 H	1	GYE1	0.344	
@<TRIPOS>BOND
1 1 8 1
2 1 9 1
3 1 10 1
4 2 5 1
5 2 7 1
6 3 4 1
7 1 5 1
8 2 6 1
9 3 7 1
@<TRIPOS>SUBSTRUCTURE
1	GYE1	1	GROUP	1 ****	GYE
