GYE_pose5
     RDKit          3D

 17 16  0  0  0  0  0  0  0  0999 V2000
   89.4370   86.3310  110.5800 C   0  0  0  0  0  0  0  0  0  0  0  0
   90.9480   86.3840  110.7130 C   0  0  0  0  0  0  0  0  0  0  0  0
   91.5690   85.3900  109.8870 O   0  0  0  0  0  0  0  0  0  0  0  0
   92.3060   84.4420  110.5350 C   0  0  0  0  0  0  0  0  0  0  0  0
   92.0500   83.9780  111.6400 O   0  0  0  0  0  0  0  0  0  0  0  0
   93.5530   84.1090  109.7190 C   0  0  0  0  0  0  0  0  0  0  0  0
   93.3730   82.8700  108.9440 N   0  0  0  0  0  0  0  0  0  0  0  0
   88.9811   86.3150  111.5810 H   0  0  0  0  0  0  0  0  0  0  0  0
   89.0859   87.2174  110.0313 H   0  0  0  0  0  0  0  0  0  0  0  0
   89.1489   85.4222  110.0313 H   0  0  0  0  0  0  0  0  0  0  0  0
   91.3019   87.3794  110.4066 H   0  0  0  0  0  0  0  0  0  0  0  0
   91.2159   86.1873  111.7616 H   0  0  0  0  0  0  0  0  0  0  0  0
   93.7590   84.9379  109.0259 H   0  0  0  0  0  0  0  0  0  0  0  0
   94.3929   83.9635  110.4142 H   0  0  0  0  0  0  0  0  0  0  0  0
   92.4750   82.8990  108.4610 H   0  0  0  0  0  0  0  0  0  0  0  0
   93.3940   82.0690  109.5750 H   0  0  0  0  0  0  0  0  0  0  0  0
   94.1240   82.7850  108.2610 H   0  0  0  0  0  0  0  0  0  0  0  0
  1  2  1  0
  2  3  1  0
  3  4  1  0
  4  5  2  0
  4  6  1  0
  6  7  1  0
  1  8  1  0
  1  9  1  0
  1 10  1  0
  2 11  1  0
  2 12  1  0
  6 13  1  0
  6 14  1  0
  7 15  1  0
  7 16  1  0
  7 17  1  0
M  CHG  1   7   1
M  END
>  <meeko>  (1) 
{"is_sidechain": [false], "free_energy": -3.495, "intermolecular_energy": -4.235, "internal_energy": -0.045}

$$$$
