@<TRIPOS>MOLECULE
GYE
   17    16     1     0     0
SMALL
bcc


@<TRIPOS>ATOM
      1 C1          89.4370    86.3310   110.5800 c3         1 GYE      -0.137100
      2 C2          90.9480    86.3840   110.7130 c3         1 GYE       0.143400
      3 O1          91.5690    85.3900   109.8870 os         1 GYE      -0.400900
      4 C3          92.3060    84.4420   110.5350 c          1 GYE       0.619100
      5 O2          92.0500    83.9780   111.6400 o          1 GYE      -0.520000
      6 C4          93.5530    84.1090   109.7190 c3         1 GYE       0.027800
      7 N1          93.3730    82.8700   108.9440 nz         1 GYE      -0.830600
      8 H1          88.9810    86.3150   111.5810 hc         1 GYE       0.065700
      9 H2          89.0860    87.2170   110.0310 hc         1 GYE       0.065700
     10 H3          89.1490    85.4220   110.0310 hc         1 GYE       0.065700
     11 H4          91.3020    87.3790   110.4070 h1         1 GYE       0.089200
     12 H5          91.2160    86.1870   111.7620 h1         1 GYE       0.089200
     13 H6          93.7590    84.9380   109.0260 hx         1 GYE       0.148200
     14 H7          94.3930    83.9630   110.4140 hx         1 GYE       0.148200
     15 H8          92.4750    82.8990   108.4610 hn         1 GYE       0.475133
     16 H9          93.3940    82.0690   109.5750 hn         1 GYE       0.475133
     17 H10         94.1240    82.7850   108.2610 hn         1 GYE       0.475133
@<TRIPOS>BOND
     1     1     2 1   
     2     2     3 1   
     3     3     4 1   
     4     4     5 2   
     5     4     6 1   
     6     6     7 1   
     7     1     8 1   
     8     1     9 1   
     9     1    10 1   
    10     2    11 1   
    11     2    12 1   
    12     6    13 1   
    13     6    14 1   
    14     7    15 1   
    15     7    16 1   
    16     7    17 1   
@<TRIPOS>SUBSTRUCTURE
     1 GYE         1 TEMP              0 ****  ****    0 ROOT
