5793
 OpenBabel06232612113D

 24 24  0  0  1  0  0  0  0  0999 V2000
    0.7328   -1.6777   -0.2652 O   0  0  0  0  0  0  0  0  0  0  0  0
   -2.7987   -0.7196    0.2088 O   0  0  0  0  0  0  0  0  0  0  0  0
   -1.5195    1.8285   -0.3567 O   0  0  0  0  0  0  0  0  0  0  0  0
    1.3090    1.9274    0.3814 O   0  0  0  0  0  0  0  0  0  0  0  0
    2.7379   -0.5676   -0.1870 O   0  0  0  0  0  0  0  0  0  0  0  0
   -0.3659   -4.2019    0.1719 O   0  0  0  0  0  0  0  0  0  0  0  0
   -1.4561   -0.6078   -0.2653 C   0  0  1  0  0  0  0  0  0  0  0  0
   -0.8082    0.7115    0.1913 C   0  0  1  0  0  0  0  0  0  0  0  0
   -0.6155   -1.7963    0.2154 C   0  0  1  0  0  0  0  0  0  0  0  0
    0.6806    0.7697   -0.1877 C   0  0  2  0  0  0  0  0  0  0  0  0
    1.3900   -0.5293    0.2555 C   0  0  1  0  0  0  0  0  0  0  0  0
   -1.1781   -3.1252   -0.2997 C   0  0  0  0  0  0  0  0  0  0  0  0
   -3.3161    0.0390   -0.1038 H   0  0  0  0  0  0  0  0  0  0  0  0
   -2.4546    1.7712   -0.1054 H   0  0  0  0  0  0  0  0  0  0  0  0
    0.8436    2.7258    0.0865 H   0  0  0  0  0  0  0  0  0  0  0  0
    3.1516   -1.3939    0.1078 H   0  0  0  0  0  0  0  0  0  0  0  0
   -0.7224   -5.0429   -0.1545 H   0  0  0  0  0  0  0  0  0  0  0  0
   -1.4892   -0.6120   -1.3348 H   0  0  0  0  0  0  0  0  0  0  0  0
   -0.8672    0.7576    1.2587 H   0  0  0  0  0  0  0  0  0  0  0  0
   -0.6408   -1.7861    1.2851 H   0  0  0  0  0  0  0  0  0  0  0  0
    0.7622    0.8519   -1.2514 H   0  0  0  0  0  0  0  0  0  0  0  0
    1.3584   -0.5361    1.3250 H   0  0  0  0  0  0  0  0  0  0  0  0
   -2.1790   -3.2508    0.0571 H   0  0  0  0  0  0  0  0  0  0  0  0
   -1.1784   -3.1212   -1.3697 H   0  0  0  0  0  0  0  0  0  0  0  0
  1  9  1  0  0  0  0
  1 11  1  0  0  0  0
  2  7  1  0  0  0  0
  2 13  1  0  0  0  0
  3  8  1  0  0  0  0
  3 14  1  0  0  0  0
  4 10  1  0  0  0  0
  4 15  1  0  0  0  0
  5 11  1  0  0  0  0
  5 16  1  0  0  0  0
  6 12  1  0  0  0  0
  6 17  1  0  0  0  0
  7  8  1  0  0  0  0
  7  9  1  0  0  0  0
  7 18  1  6  0  0  0
  8 10  1  0  0  0  0
  8 19  1  1  0  0  0
  9 12  1  0  0  0  0
  9 20  1  1  0  0  0
 10 11  1  0  0  0  0
 10 21  1  6  0  0  0
 11 22  1  1  0  0  0
 12 23  1  0  0  0  0
 12 24  1  0  0  0  0
M  END
>  <PUBCHEM_COMPOUND_CID>
5793

>  <PUBCHEM_CONFORMER_RMSD>
0.6

>  <PUBCHEM_CONFORMER_DIVERSEORDER>
1
8
4
3
6
2
7
5

>  <PUBCHEM_MMFF94_PARTIAL_CHARGES>
17
1 -0.56
10 0.28
11 0.56
12 0.28
2 -0.68
20 0.4
21 0.4
22 0.4
23 0.4
24 0.4
3 -0.68
4 -0.68
5 -0.68
6 -0.68
7 0.28
8 0.28
9 0.28

>  <PUBCHEM_EFFECTIVE_ROTOR_COUNT>
2.2

>  <PUBCHEM_PHARMACOPHORE_FEATURES>
12
1 1 acceptor
1 2 acceptor
1 2 donor
1 3 acceptor
1 3 donor
1 4 acceptor
1 4 donor
1 5 acceptor
1 5 donor
1 6 acceptor
1 6 donor
6 1 7 8 9 10 11 rings

>  <PUBCHEM_HEAVY_ATOM_COUNT>
12

>  <PUBCHEM_ATOM_DEF_STEREO_COUNT>
4

>  <PUBCHEM_ATOM_UDEF_STEREO_COUNT>
1

>  <PUBCHEM_BOND_DEF_STEREO_COUNT>
0

>  <PUBCHEM_BOND_UDEF_STEREO_COUNT>
0

>  <PUBCHEM_ISOTOPIC_ATOM_COUNT>
0

>  <PUBCHEM_COMPONENT_COUNT>
1

>  <PUBCHEM_CACTVS_TAUTO_COUNT>
1

>  <PUBCHEM_CONFORMER_ID>
000016A100000001

>  <PUBCHEM_MMFF94_ENERGY>
27.5671

>  <PUBCHEM_FEATURE_SELFOVERLAP>
60.963

>  <PUBCHEM_SHAPE_FINGERPRINT>
12423570 1 11440868573817502106
16945 1 18338792415782022985
18185500 45 18410572903041433514
193761 8 18122905588311858698
21040471 1 18339079405607498497
23235685 24 18410853278337711372
2334 1 17834396004942031816
23402655 69 18267854013893658469
23552423 10 18120089751981225934
23559900 14 18270413797459679636
241688 4 17978794506319527824
2748010 2 18194117417474202524
5084963 1 17769667725561077874
5255222 1 18335976562245387725
528862 383 18261390018417527851
528886 8 18411416206831951673
53812653 166 18412823616180991792
63268167 104 18410859824078808769
66348 1 18411141294496697448

>  <PUBCHEM_SHAPE_MULTIPOLES>
211.74
3.59
2.42
0.65
1.75
0.15
0
-0.75
-0.13
-0.7
0.1
-0.03
0.03
-0.1

>  <PUBCHEM_SHAPE_SELFOVERLAP>
421.584

>  <PUBCHEM_SHAPE_VOLUME>
123.3

>  <PUBCHEM_COORDINATE_TYPE>
2
5
10

>  <Energy>
93.6448

$$$$
