12176
 OpenBabel06152613223D

 17 16  0  0  0  0  0  0  0  0999 V2000
    1.0884   -0.0712   -0.2941 O   0  0  0  0  0  0  0  0  0  0  0  0
    2.9486    0.7929    0.7500 O   0  0  0  0  0  0  0  0  0  0  0  0
    4.3955   -1.4687   -0.2862 N   0  3  0  0  0  0  0  0  0  0  0  0
    0.2462    0.8378    0.4290 C   0  0  0  0  0  0  0  0  0  0  0  0
    3.1866   -0.9492   -0.9456 C   0  0  0  0  0  0  0  0  0  0  0  0
   -0.0946    0.2863    1.8012 C   0  0  0  0  0  0  0  0  0  0  0  0
    2.4257    0.0131   -0.0368 C   0  0  0  0  0  0  0  0  0  0  0  0
    4.8798   -2.1067   -0.9177 H   0  0  0  0  0  0  0  0  0  0  0  0
    4.1317   -1.9669    0.5639 H   0  0  0  0  0  0  0  0  0  0  0  0
    5.0129   -0.6926   -0.0477 H   0  0  0  0  0  0  0  0  0  0  0  0
   -0.6584    0.9904   -0.1216 H   0  0  0  0  0  0  0  0  0  0  0  0
    0.7693    1.7629    0.5530 H   0  0  0  0  0  0  0  0  0  0  0  0
    2.5474   -1.7696   -1.1968 H   0  0  0  0  0  0  0  0  0  0  0  0
    3.4850   -0.4171   -1.8247 H   0  0  0  0  0  0  0  0  0  0  0  0
   -0.6188   -0.6403    1.6930 H   0  0  0  0  0  0  0  0  0  0  0  0
   -0.7122    0.9866    2.3237 H   0  0  0  0  0  0  0  0  0  0  0  0
    0.8068    0.1236    2.3542 H   0  0  0  0  0  0  0  0  0  0  0  0
  1  4  1  0  0  0  0
  1  7  1  0  0  0  0
  2  7  2  0  0  0  0
  3  5  1  0  0  0  0
  3  8  1  0  0  0  0
  3  9  1  0  0  0  0
  3 10  1  0  0  0  0
  4  6  1  0  0  0  0
  4 11  1  0  0  0  0
  4 12  1  0  0  0  0
  5  7  1  0  0  0  0
  5 13  1  0  0  0  0
  5 14  1  0  0  0  0
  6 15  1  0  0  0  0
  6 16  1  0  0  0  0
  6 17  1  0  0  0  0
M  CHG  1   3   1
M  END
>  <PUBCHEM_COMPOUND_CID>
12176

>  <PUBCHEM_CONFORMER_RMSD>
0.4

>  <PUBCHEM_CONFORMER_DIVERSEORDER>
1
43
6
42
41
36
30
29
2
26
44
10
27
37
40
31
11
28
23
3
34
18
5
17
35
16
21
7
14
38
19
22
4
12
20
13
25
24
39
15
8
9
33
32

>  <PUBCHEM_MMFF94_PARTIAL_CHARGES>
8
1 -0.43
15 0.36
16 0.36
2 -0.57
3 -0.99
4 0.28
5 0.33
7 0.66

>  <PUBCHEM_EFFECTIVE_ROTOR_COUNT>
3

>  <PUBCHEM_PHARMACOPHORE_FEATURES>
3
1 2 acceptor
1 3 cation
1 3 donor

>  <PUBCHEM_HEAVY_ATOM_COUNT>
7

>  <PUBCHEM_ATOM_DEF_STEREO_COUNT>
0

>  <PUBCHEM_ATOM_UDEF_STEREO_COUNT>
0

>  <PUBCHEM_BOND_DEF_STEREO_COUNT>
0

>  <PUBCHEM_BOND_UDEF_STEREO_COUNT>
0

>  <PUBCHEM_ISOTOPIC_ATOM_COUNT>
0

>  <PUBCHEM_COMPONENT_COUNT>
1

>  <PUBCHEM_CACTVS_TAUTO_COUNT>
1

>  <PUBCHEM_CONFORMER_ID>
00002F9000000001

>  <PUBCHEM_MMFF94_ENERGY>
2.2759

>  <PUBCHEM_FEATURE_SELFOVERLAP>
15.223

>  <PUBCHEM_SHAPE_FINGERPRINT>
14325111 11 18410856602700310272
14390081 3 18272367581501643689
20096714 4 18339642346976363920
21040471 1 18338799043085398246
29004967 10 18186809066948128937
5460574 1 9223235147762729665

>  <PUBCHEM_SHAPE_MULTIPOLES>
127.34
4.26
1.01
0.58
1.1
0.2
0
-0.88
0.01
-0.18
0
0.04
-0.01
0

>  <PUBCHEM_SHAPE_SELFOVERLAP>
228.337

>  <PUBCHEM_SHAPE_VOLUME>
82.6

>  <PUBCHEM_COORDINATE_TYPE>
2
5
10

>  <Energy>
38.0139

$$$$
