estm2_glyee/ligands/EstM2_GlyEE_seed1.pdbqt
 OpenBabel06242614033D

 10  9  0  0  0  0  0  0  0  0999 V2000
    7.0460   -0.1410   -3.1350 O   0  0  0  0  0  0  0  0  0  0  0  0
    7.8500   -0.5180   -2.2910 C   0  0  0  0  0  0  0  0  0  0  0  0
    8.7280    0.2860   -1.6230 O   0  0  0  0  0  0  0  0  0  0  0  0
    8.1560    1.3860   -0.9010 C   0  0  0  0  0  2  0  0  0  0  0  0
    9.2100    2.4310   -0.5820 C   0  0  0  0  0  1  0  0  0  0  0  0
    7.9540   -1.9470   -1.7630 C   0  0  0  0  0  2  0  0  0  0  0  0
    7.0510   -2.8550   -2.4890 N   0  0  0  0  0  4  0  0  0  0  0  0
    6.9770   -3.7370   -1.9820 H   0  0  0  0  0  0  0  0  0  0  0  0
    7.4230   -3.0300   -3.4230 H   0  0  0  0  0  0  0  0  0  0  0  0
    6.1290   -2.4270   -2.5650 H   0  0  0  0  0  0  0  0  0  0  0  0
  1  2  2  0  0  0  0
  2  6  1  0  0  0  0
  2  3  1  0  0  0  0
  3  4  1  0  0  0  0
  4  5  1  0  0  0  0
  7  8  1  0  0  0  0
  7  6  1  0  0  0  0
  9  7  1  0  0  0  0
 10  7  1  0  0  0  0
M  END
>  <MODEL>
9

>  <REMARK>
 VINA RESULT:    -3.587      9.166      9.917
 INTER + INTRA:          -4.340
 INTER:                  -4.321
 INTRA:                  -0.019
 UNBOUND:                -0.020
 SMILES CCOC(=O)C[NH3+]
 SMILES IDX 5 1 4 2 3 3 2 4 1 5 6 6 7 7
 H PARENT 7 8 7 9 7 10

>  <TORSDO>
F 4

$$$$
